Circuit: * C:\Users\isikemir\Desktop\Courses\EE463\TermProject\EE463-HardwareProject\Simulation\H-bridge-trials\Rectifier_Single_Phase.asc

.OP point found by inspection.

Date: Thu Dec 01 14:58:55 2022
Total elapsed time: 0.095 seconds.

tnom = 27
temp = 27
method = modified trap
totiter = 12821
traniter = 12821
tranpoints = 4289
accept = 3099
rejected = 1190
matrix size = 8
fillins = 0
solver = Normal
Matrix Compiler1: 318 bytes object code size  0.1/0.1/[0.0]
Matrix Compiler2: 574 bytes object code size  0.1/0.1/[0.1]

